Version 4.1
SHEET 1 2332 2300
WIRE 240 944 208 944
WIRE 240 976 208 976
WIRE -352 992 -384 992
WIRE 576 992 496 992
WIRE 240 1008 -32 1008
WIRE -352 1024 -384 1024
WIRE 576 1024 496 1024
WIRE 240 1040 -32 1040
WIRE -352 1056 -384 1056
WIRE 608 1328 576 1328
WIRE 1088 1328 848 1328
WIRE 608 1360 576 1360
WIRE 880 1360 848 1360
WIRE 1088 1360 1056 1360
WIRE 1360 1360 1328 1360
WIRE 336 1392 304 1392
WIRE 608 1392 416 1392
WIRE 608 1424 576 1424
WIRE 496 1632 368 1632
WIRE 720 1632 576 1632
WIRE -336 1664 -336 1616
WIRE 368 1728 368 1632
WIRE 1072 1728 1040 1728
WIRE 720 1744 720 1632
WIRE 816 1744 720 1744
WIRE -336 1760 -336 1744
WIRE -336 1760 -368 1760
WIRE 1168 1760 1040 1760
WIRE 1456 1760 1424 1760
WIRE 816 1776 720 1776
WIRE -336 1792 -336 1760
WIRE 1168 1792 1040 1792
WIRE 1456 1792 1424 1792
WIRE -208 1808 -208 1776
WIRE -64 1808 -64 1776
WIRE 1456 1824 1424 1824
WIRE 1456 1856 1424 1856
WIRE 368 1904 368 1808
WIRE 496 1904 368 1904
WIRE 720 1904 720 1776
WIRE 720 1904 576 1904
WIRE -336 1920 -336 1872
WIRE -208 1920 -208 1888
WIRE -64 1920 -64 1888
FLAG -64 1920 0
FLAG -64 1776 Vin
IOPIN -64 1776 Out
FLAG -208 1920 0
FLAG -208 1776 VCC
IOPIN -208 1776 Out
FLAG -336 1920 0
FLAG -336 1616 VCC
IOPIN -336 1616 In
FLAG -368 1760 Vcm
IOPIN -368 1760 Out
FLAG -384 992 VCC
IOPIN -384 992 In
FLAG -384 1024 Vcm
IOPIN -384 1024 In
FLAG -384 1056 Vin
IOPIN -384 1056 In
FLAG 208 976 VCC
IOPIN 208 976 In
FLAG 208 944 Vcm
IOPIN 208 944 In
FLAG 1456 1792 Vramp
IOPIN 1456 1792 In
FLAG 1072 1728 VCC
IOPIN 1072 1728 In
FLAG 1456 1824 VCC
IOPIN 1456 1824 In
FLAG 576 1024 Vin_a
IOPIN 576 1024 Out
FLAG 1456 1856 Vin_a
IOPIN 1456 1856 In
FLAG 1456 1760 Vcm
IOPIN 1456 1760 In
FLAG 576 992 Vref
IOPIN 576 992 Out
FLAG 576 1424 VCC
IOPIN 576 1424 In
FLAG 576 1360 Vcm
IOPIN 576 1360 In
FLAG 576 1328 Vcm
IOPIN 576 1328 In
FLAG 1056 1360 VCC
IOPIN 1056 1360 In
FLAG 1360 1360 V_OUT
IOPIN 1360 1360 Out
FLAG 880 1360 Vramp
IOPIN 880 1360 Out
FLAG 304 1392 0
SYMBOL p4_instance 1296 1808 M0
SYMATTR InstName Exp4
SYMBOL p5_instance 928 1760 M0
SYMATTR InstName Exp5
SYMBOL p6_instance -192 1024 R0
SYMATTR InstName Exp6
SYMBOL p7_instance 368 992 R0
SYMATTR InstName Exp7
SYMBOL voltage -64 1792 R0
WINDOW 123 0 0 Left 0
WINDOW 39 0 0 Left 0
SYMATTR InstName Vin
SYMATTR Value SINE(0 0.45 1k)
SYMBOL voltage -208 1792 R0
WINDOW 123 0 0 Left 0
WINDOW 39 0 0 Left 0
SYMATTR InstName SUPPLY
SYMATTR Value 5
SYMBOL res -352 1648 R0
SYMATTR InstName R1
SYMATTR Value 5k
SYMBOL res -352 1776 R0
SYMATTR InstName R2
SYMATTR Value 5k
SYMBOL res 480 1616 M90
WINDOW 0 0 56 VBottom 2
WINDOW 3 32 56 VTop 2
SYMATTR InstName R3
SYMATTR Value {Rl_2}
SYMBOL res 480 1888 M90
WINDOW 0 0 56 VBottom 2
WINDOW 3 32 56 VTop 2
SYMATTR InstName R4
SYMATTR Value {Rl_2}
SYMBOL ind 384 1712 M0
SYMATTR InstName L1
SYMATTR Value {Ls}
SYMBOL p1_instance 720 1376 R0
SYMATTR InstName Exp1
SYMBOL p2_instance 1200 1344 R0
SYMATTR InstName Exp2
SYMBOL voltage 432 1392 R90
WINDOW 0 -32 56 VBottom 2
WINDOW 3 32 56 VTop 2
WINDOW 123 0 0 Left 0
WINDOW 39 0 0 Left 0
SYMATTR InstName V1
SYMATTR Value 2.5
TEXT 1128 840 Left 5 ;Final Circuit
TEXT -256 864 Left 4 ;Filters
TEXT 80 848 Left 4 ;Adder and Peak Detector
TEXT 792 2048 Left 4 ;Class-D Amplifier
TEXT 448 1776 Left 3 ;Speaker model
TEXT 1680 2112 Left 2 ;Aadarsh Ramachandiran (EE23B001)
TEXT -488 2136 Left 2 !.tran 10m
TEXT -488 2168 Left 2 !.params R_sense=5 Rl_2=16 Ls=100u
