Version 4.1
SHEET 1 2384 1608
WIRE 384 -16 384 -48
WIRE 304 0 64 0
WIRE 1552 64 1552 48
WIRE 240 80 208 80
WIRE 832 80 832 48
WIRE 1008 80 1008 48
WIRE 64 96 64 0
WIRE 96 96 64 96
WIRE 224 112 208 112
WIRE 304 112 304 0
WIRE 304 112 256 112
WIRE 384 112 384 48
WIRE 384 112 304 112
WIRE 768 112 384 112
WIRE 944 112 880 112
WIRE 1296 112 1056 112
WIRE 1488 112 1376 112
WIRE -112 128 -368 128
WIRE 96 128 -112 128
WIRE 224 144 208 144
WIRE 832 160 832 144
WIRE 1008 176 1008 144
WIRE -112 192 -112 128
WIRE -144 256 -176 256
WIRE -48 256 -80 256
WIRE 1552 256 1552 160
WIRE 1664 256 1552 256
WIRE 1552 320 1552 256
WIRE 224 336 208 336
WIRE 608 336 608 304
WIRE 832 336 832 304
WIRE 1008 336 1008 304
WIRE -112 352 -112 304
WIRE 96 352 -112 352
WIRE 224 368 208 368
WIRE 240 368 240 80
WIRE 304 368 240 368
WIRE 384 368 304 368
WIRE 544 368 384 368
WIRE 768 368 656 368
WIRE 944 368 880 368
WIRE 1296 368 1056 368
WIRE 1488 368 1376 368
WIRE 96 384 64 384
WIRE 256 400 256 112
WIRE 256 400 208 400
WIRE 384 432 384 368
WIRE 608 432 608 400
WIRE 832 432 832 400
WIRE 1008 432 1008 400
WIRE 1552 432 1552 416
WIRE 64 496 64 384
WIRE 304 496 304 368
WIRE 304 496 64 496
WIRE 384 528 384 496
WIRE 1712 560 1568 560
WIRE 1920 560 1792 560
WIRE -1024 640 -1056 640
WIRE -736 640 -768 640
WIRE 1920 656 1920 560
WIRE -1024 672 -1056 672
WIRE -736 672 -768 672
WIRE -1024 704 -1056 704
WIRE -1024 736 -1056 736
WIRE 1712 832 1568 832
WIRE 1920 832 1920 736
WIRE 1920 832 1792 832
WIRE 384 912 384 880
WIRE 304 928 64 928
WIRE 1600 992 1600 976
WIRE 240 1008 208 1008
WIRE 832 1008 832 976
WIRE 1008 1008 1008 976
WIRE 64 1024 64 928
WIRE 96 1024 64 1024
WIRE 224 1040 208 1040
WIRE 304 1040 304 928
WIRE 304 1040 256 1040
WIRE 384 1040 384 976
WIRE 384 1040 304 1040
WIRE 768 1040 384 1040
WIRE 944 1040 880 1040
WIRE 1344 1040 1056 1040
WIRE 1536 1040 1424 1040
WIRE -112 1056 -368 1056
WIRE 96 1056 -112 1056
WIRE 224 1072 208 1072
WIRE 832 1088 832 1072
WIRE 1008 1104 1008 1072
WIRE -1296 1120 -1296 1088
WIRE -1184 1120 -1184 1088
WIRE -1072 1120 -1072 1088
WIRE -960 1120 -960 1088
WIRE -112 1120 -112 1056
WIRE -144 1184 -176 1184
WIRE -48 1184 -80 1184
WIRE 1600 1184 1600 1088
WIRE 1712 1184 1600 1184
WIRE -1296 1232 -1296 1200
WIRE -1184 1232 -1184 1200
WIRE -1072 1232 -1072 1200
WIRE -960 1232 -960 1200
WIRE 1600 1248 1600 1184
WIRE 224 1264 208 1264
WIRE 608 1264 608 1232
WIRE 832 1264 832 1232
WIRE 1008 1264 1008 1232
WIRE -112 1280 -112 1232
WIRE 96 1280 -112 1280
WIRE 224 1296 208 1296
WIRE 240 1296 240 1008
WIRE 304 1296 240 1296
WIRE 384 1296 304 1296
WIRE 544 1296 384 1296
WIRE 768 1296 656 1296
WIRE 944 1296 880 1296
WIRE 1344 1296 1056 1296
WIRE 1536 1296 1424 1296
WIRE 96 1312 64 1312
WIRE 256 1328 256 1040
WIRE 256 1328 208 1328
WIRE 384 1360 384 1296
WIRE 608 1360 608 1328
WIRE 832 1360 832 1328
WIRE 1008 1360 1008 1328
WIRE 1600 1360 1600 1344
WIRE 64 1424 64 1312
WIRE 304 1424 304 1296
WIRE 304 1424 64 1424
WIRE 384 1456 384 1424
FLAG 384 528 0
FLAG 384 -48 0
FLAG 1552 48 VCC
IOPIN 1552 48 In
FLAG 224 112 VCC
IOPIN 224 112 In
FLAG 224 368 VCC
IOPIN 224 368 In
FLAG -48 256 VCC
IOPIN -48 256 In
FLAG 224 144 0
FLAG 224 336 0
FLAG -176 256 0
FLAG 832 48 VCC
IOPIN 832 48 In
FLAG 1008 48 VCC
IOPIN 1008 48 In
FLAG 832 304 VCC
IOPIN 832 304 In
FLAG 1008 304 VCC
IOPIN 1008 304 In
FLAG 1008 176 0
FLAG 1008 432 0
FLAG 1552 432 0
FLAG 1664 256 Vout_p
IOPIN 1664 256 Out
FLAG -368 128 Vpwm_p
IOPIN -368 128 In
FLAG 832 432 0
FLAG 832 160 0
FLAG 384 1456 0
FLAG 384 880 0
FLAG 1600 976 VCC
IOPIN 1600 976 In
FLAG 224 1040 VCC
IOPIN 224 1040 In
FLAG 224 1296 VCC
IOPIN 224 1296 In
FLAG -48 1184 VCC
IOPIN -48 1184 In
FLAG 224 1072 0
FLAG 224 1264 0
FLAG -176 1184 0
FLAG 832 976 VCC
IOPIN 832 976 In
FLAG 1008 976 VCC
IOPIN 1008 976 In
FLAG 832 1232 VCC
IOPIN 832 1232 In
FLAG 1008 1232 VCC
IOPIN 1008 1232 In
FLAG 1008 1104 0
FLAG 1008 1360 0
FLAG 1600 1360 0
FLAG 1712 1184 Vout_n
IOPIN 1712 1184 Out
FLAG -368 1056 Vpwm_n
IOPIN -368 1056 In
FLAG 832 1360 0
FLAG 832 1088 0
FLAG 1568 560 Vout_p
IOPIN 1568 560 In
FLAG 1568 832 Vout_n
IOPIN 1568 832 In
FLAG -736 672 Vpwm_p
IOPIN -736 672 Out
FLAG -736 640 Vpwm_n
IOPIN -736 640 Out
FLAG -1056 704 VCC
IOPIN -1056 704 In
FLAG -1296 1088 VCC
IOPIN -1296 1088 Out
FLAG -960 1232 0
FLAG -1072 1232 0
FLAG -1184 1232 0
FLAG -1296 1232 0
FLAG -1184 1088 Vin_a
IOPIN -1184 1088 Out
FLAG -1056 736 Vin_a
IOPIN -1056 736 In
FLAG -1072 1088 V_CM
IOPIN -1072 1088 Out
FLAG -1056 640 V_CM
IOPIN -1056 640 In
FLAG -960 1088 V_RAMP
IOPIN -960 1088 Out
FLAG -1056 672 V_RAMP
IOPIN -1056 672 In
FLAG 608 1232 VCC
IOPIN 608 1232 In
FLAG 608 1360 0
FLAG 608 304 VCC
IOPIN 608 304 In
FLAG 608 432 0
SYMBOL Ext_models\\SN74AHC00 144 112 R0
SYMATTR InstName U1
SYMBOL Ext_models\\SN74AHC00 144 368 M180
SYMATTR InstName U2
SYMBOL Ext_models\\CD4069UB -112 240 R90
WINDOW 3 80 41 Top 1
SYMATTR InstName U3
SYMBOL cap 368 432 R0
SYMATTR InstName C1
SYMATTR Value {C}
SYMBOL cap 368 -16 R0
SYMATTR InstName C2
SYMATTR Value {C}
SYMBOL Ext_models\\CD4069UB 816 112 R0
SYMATTR InstName U4
SYMBOL Ext_models\\CD4069UB 992 112 R0
SYMATTR InstName U5
SYMBOL Ext_models\\CD4069UB 816 368 R0
SYMATTR InstName U6
SYMBOL Ext_models\\CD4069UB 992 368 R0
SYMATTR InstName U7
SYMBOL res 1392 96 R90
WINDOW 0 0 56 VBottom 2
WINDOW 3 32 56 VTop 2
SYMATTR InstName R1
SYMATTR Value {R_b}
SYMBOL res 1392 352 R90
WINDOW 0 0 56 VBottom 2
WINDOW 3 32 56 VTop 2
SYMATTR InstName R2
SYMATTR Value {R_b}
SYMBOL npn 1488 320 R0
SYMATTR InstName Q_n
SYMATTR Value 2N2222
SYMBOL pnp 1488 160 M180
SYMATTR InstName Q_p
SYMATTR Value 2N2907
SYMBOL Ext_models\\SN74AHC00 144 1040 R0
SYMATTR InstName U8
SYMBOL Ext_models\\SN74AHC00 144 1296 M180
SYMATTR InstName U9
SYMBOL Ext_models\\CD4069UB -112 1168 R90
WINDOW 3 80 41 Top 1
SYMATTR InstName U10
SYMBOL cap 368 1360 R0
SYMATTR InstName C3
SYMATTR Value {C}
SYMBOL cap 368 912 R0
SYMATTR InstName C4
SYMATTR Value {C}
SYMBOL Ext_models\\CD4069UB 816 1040 R0
SYMATTR InstName U11
SYMBOL Ext_models\\CD4069UB 992 1040 R0
SYMATTR InstName U12
SYMBOL Ext_models\\CD4069UB 816 1296 R0
SYMATTR InstName U13
SYMBOL Ext_models\\CD4069UB 992 1296 R0
SYMATTR InstName U14
SYMBOL res 1440 1024 R90
WINDOW 0 0 56 VBottom 2
WINDOW 3 32 56 VTop 2
SYMATTR InstName R3
SYMATTR Value {R_b}
SYMBOL res 1440 1280 R90
WINDOW 0 0 56 VBottom 2
WINDOW 3 32 56 VTop 2
SYMATTR InstName R4
SYMATTR Value {R_b}
SYMBOL npn 1536 1248 R0
SYMATTR InstName Q_n1
SYMATTR Value 2N2222
SYMBOL pnp 1536 1088 M180
SYMATTR InstName Q_p1
SYMATTR Value 2N2907
SYMBOL res 1808 544 R90
WINDOW 0 0 56 VBottom 2
WINDOW 3 32 56 VTop 2
SYMATTR InstName R5
SYMATTR Value {Rl_2}
SYMBOL res 1808 816 R90
WINDOW 0 0 56 VBottom 2
WINDOW 3 32 56 VTop 2
SYMATTR InstName R6
SYMATTR Value {Rl_2}
SYMBOL ind 1904 640 R0
SYMATTR InstName L1
SYMATTR Value {Ls}
SYMBOL p4_instance -896 688 R0
SYMATTR InstName Exp4
SYMBOL voltage -1072 1104 R0
SYMATTR InstName Vcm
SYMATTR Value 2.5
SYMBOL voltage -960 1104 R0
WINDOW 123 0 0 Left 0
WINDOW 39 0 0 Left 0
SYMATTR InstName Vramp
SYMATTR Value PULSE(2 3 0 5u 5u 0 10u)
SYMBOL voltage -1184 1104 R0
WINDOW 3 -56 167 Left 2
WINDOW 123 0 0 Left 0
WINDOW 39 0 0 Left 0
SYMATTR Value SINE(0 0.5 1k)
SYMATTR InstName Vsine
SYMBOL voltage -1296 1104 R0
WINDOW 123 0 0 Left 0
WINDOW 39 0 0 Left 0
SYMATTR InstName V2
SYMATTR Value 5
SYMBOL Ext_models\\CD4069UB 592 368 R0
SYMATTR InstName U15
SYMBOL Ext_models\\CD4069UB 592 1296 R0
SYMATTR InstName U16
TEXT -64 640 Left 2 ;Non-overlap Clock Generator
TEXT 1032 640 Left 2 ;H-bridge driver
TEXT -64 1568 Left 2 ;Non-overlap Clock Generator
TEXT 1032 1568 Left 2 ;H-bridge driver
TEXT 2024 688 Left 2 ;Model for speaker
TEXT 1872 1288 Left 2 !.tran 0.5m
TEXT 1872 1320 Left 2 !.params C=10n R_b=50 Rl_2=16 Ls=100u
RECTANGLE Normal 464 592 -272 -112 2
RECTANGLE Normal 1440 512 752 -48 2
RECTANGLE Normal 464 1520 -272 816 2
RECTANGLE Normal 1440 1440 752 880 2
