Version 4.1
SHEET 1 1836 688
WIRE 928 16 928 0
WIRE 944 16 928 16
WIRE 1040 16 1024 16
WIRE 928 64 928 16
WIRE 896 80 848 80
WIRE 1040 96 1040 16
WIRE 1040 96 960 96
WIRE 1088 96 1040 96
WIRE 896 112 848 112
WIRE 336 128 224 128
WIRE 528 128 416 128
WIRE 32 208 0 208
WIRE 112 208 96 208
WIRE 224 208 224 128
WIRE 224 208 192 208
WIRE 272 208 224 208
WIRE 528 224 528 128
WIRE 528 224 336 224
WIRE 608 224 528 224
WIRE 272 240 256 240
WIRE 96 336 96 208
WIRE 608 336 96 336
WIRE 928 352 928 336
WIRE 944 352 928 352
WIRE 1040 352 1024 352
WIRE 928 400 928 352
WIRE 896 416 848 416
WIRE 1040 432 1040 352
WIRE 1040 432 960 432
WIRE 1088 432 1040 432
WIRE 896 448 848 448
FLAG 608 224 Vin_a_i
IOPIN 608 224 Out
FLAG 608 336 Vin_a_ni
IOPIN 608 336 Out
FLAG 0 208 Vin_a
IOPIN 0 208 In
FLAG 304 192 0
FLAG 304 256 VCC
IOPIN 304 256 In
FLAG 848 80 Vin_a_i
IOPIN 848 80 In
FLAG 848 416 Vin_a_ni
IOPIN 848 416 In
FLAG 848 112 V_RAMP
IOPIN 848 112 In
FLAG 848 448 V_RAMP
IOPIN 848 448 In
FLAG 1088 96 V_PWM_p
IOPIN 1088 96 Out
FLAG 1088 432 V_PWM_n
IOPIN 1088 432 Out
FLAG 928 0 VCC
IOPIN 928 0 In
FLAG 928 336 VCC
IOPIN 928 336 In
FLAG 928 128 0
FLAG 928 464 0
FLAG 256 240 V_CM
IOPIN 256 240 In
SYMBOL Ext_models\\MCP6001 304 224 M180
SYMATTR InstName U1
SYMBOL res 432 112 R90
WINDOW 0 0 56 VBottom 2
WINDOW 3 32 56 VTop 2
SYMATTR InstName R2
SYMATTR Value {R2}
SYMBOL res 208 192 R90
WINDOW 0 0 56 VBottom 2
WINDOW 3 32 56 VTop 2
SYMATTR InstName R1
SYMATTR Value {R1}
SYMBOL cap 96 192 R90
WINDOW 0 0 32 VBottom 2
WINDOW 3 32 32 VTop 2
SYMATTR InstName Cin
SYMATTR Value {Cin}
SYMBOL Ext_models\\LM339 960 96 R0
SYMATTR InstName CMP1
SYMBOL Ext_models\\LM339 960 432 R0
SYMATTR InstName CMP2
SYMBOL res 1040 0 R90
WINDOW 0 0 56 VBottom 2
WINDOW 3 32 56 VTop 2
SYMATTR InstName R3
SYMATTR Value 500
SYMBOL res 1040 336 R90
WINDOW 0 0 56 VBottom 2
WINDOW 3 32 56 VTop 2
SYMATTR InstName R4
SYMATTR Value 500
TEXT 1408 544 Left 2 !.param R1=10k R2=10k Cin=0.085u
