Version 4.1
SHEET 1 2624 1144
WIRE 688 16 272 16
WIRE 464 80 416 80
WIRE 2096 80 1552 80
WIRE 272 96 272 16
WIRE 304 96 272 96
WIRE 448 112 416 112
WIRE 1632 112 1632 64
WIRE 304 128 64 128
WIRE 1552 128 1552 80
WIRE 1584 128 1552 128
WIRE 448 144 416 144
WIRE 64 176 64 128
WIRE 64 176 -192 176
WIRE 464 192 464 80
WIRE 464 192 272 192
WIRE 1216 224 1216 192
WIRE 1344 224 1344 192
WIRE 368 240 368 224
WIRE 192 272 176 272
WIRE 272 272 272 192
WIRE 272 272 256 272
WIRE 320 272 272 272
WIRE 480 272 432 272
WIRE 2096 272 1664 272
WIRE 64 288 64 176
WIRE 688 304 688 16
WIRE 1152 304 688 304
WIRE 1552 304 1552 128
WIRE 1552 304 1408 304
WIRE 368 336 368 304
WIRE 1632 336 1632 208
WIRE 1664 336 1664 272
WIRE 1664 336 1632 336
WIRE 1696 336 1664 336
WIRE 1808 336 1776 336
WIRE 1904 336 1888 336
WIRE 2096 336 1904 336
WIRE 32 352 -16 352
WIRE 128 352 96 352
WIRE 1904 352 1904 336
WIRE 1152 400 688 400
WIRE 1552 400 1408 400
WIRE 1632 448 1632 336
WIRE 1904 448 1904 416
WIRE 368 464 368 448
WIRE 544 464 544 448
WIRE 192 496 176 496
WIRE 272 496 256 496
WIRE 320 496 272 496
WIRE 496 496 432 496
WIRE 720 496 608 496
WIRE 1216 512 1216 480
WIRE 1344 512 1344 480
WIRE 1552 528 1552 400
WIRE 1584 528 1552 528
WIRE 368 560 368 528
WIRE 544 560 544 528
WIRE 1552 624 1552 528
WIRE 2096 624 1552 624
WIRE 272 640 272 496
WIRE 480 640 272 640
WIRE 480 688 480 640
WIRE 480 688 432 688
WIRE 320 704 288 704
WIRE 448 720 432 720
WIRE 608 720 608 688
WIRE 64 736 64 400
WIRE 320 736 64 736
WIRE 464 752 432 752
WIRE 544 752 528 752
WIRE 688 752 688 400
WIRE 688 752 656 752
WIRE 288 800 288 704
WIRE 528 800 528 752
WIRE 528 800 288 800
WIRE 608 816 608 784
FLAG 176 272 0
FLAG 176 496 0
FLAG 1904 448 0
FLAG 1632 544 0
FLAG -192 176 V_PWM
IOPIN -192 176 In
FLAG 2096 336 V_OUT
IOPIN 2096 336 Out
FLAG 2096 272 V_SW
IOPIN 2096 272 Out
FLAG 480 272 V_GATE_N
IOPIN 480 272 In
FLAG 720 496 V_GATE_P
IOPIN 720 496 In
FLAG 2096 80 V_GATE_P
IOPIN 2096 80 Out
FLAG 2096 624 V_GATE_N
IOPIN 2096 624 Out
FLAG 128 352 VCC
IOPIN 128 352 In
FLAG 368 336 VCC
IOPIN 368 336 In
FLAG 368 560 VCC
IOPIN 368 560 In
FLAG 544 560 VCC
IOPIN 544 560 In
FLAG 448 720 VCC
IOPIN 448 720 In
FLAG -16 352 0
FLAG 448 112 VCC
IOPIN 448 112 In
FLAG 448 144 0
FLAG 368 224 0
FLAG 464 752 0
FLAG 368 448 0
FLAG 544 448 0
FLAG 608 688 VCC
IOPIN 608 688 In
FLAG 608 816 0
FLAG 1216 512 0
FLAG 1344 512 0
FLAG 1216 192 VCC
IOPIN 1216 192 In
FLAG 1344 192 VCC
IOPIN 1344 192 In
FLAG 1632 64 VCC
IOPIN 1632 64 In
SYMBOL cap 256 256 R90
WINDOW 0 0 32 VBottom 2
WINDOW 3 32 32 VTop 2
SYMATTR InstName C_p
SYMATTR Value {C_p}
SYMBOL cap 256 480 R90
WINDOW 0 0 32 VBottom 2
WINDOW 3 32 32 VTop 2
SYMATTR InstName C_n
SYMATTR Value {C_n}
SYMBOL nmos 1584 448 R0
SYMATTR InstName M2
SYMATTR Value NTMFS5C646NL
SYMBOL cap 1888 352 R0
SYMATTR InstName C_filter
SYMATTR Value {C_f}
SYMBOL ind 1680 352 R270
WINDOW 0 32 56 VTop 2
WINDOW 3 5 56 VBottom 2
SYMATTR InstName L_filter
SYMATTR Value {L_f}
SYMBOL Ext_models\\SN74AHC00 352 112 R0
SYMATTR InstName U1
SYMBOL Ext_models\\SN74AHC00 368 720 R0
SYMATTR InstName U2
SYMBOL Ext_models\\CD4069UB 592 752 R0
SYMATTR InstName U3
SYMBOL Ext_models\\CD4069UB 384 272 R180
SYMATTR InstName U4
SYMBOL Ext_models\\CD4069UB 384 496 R180
SYMATTR InstName U5
SYMBOL Ext_models\\CD4069UB 560 496 R180
SYMATTR InstName U6
SYMBOL Ext_models\\CD4069UB 64 336 R90
SYMATTR InstName U7
SYMBOL PowerProducts\\LTC1693-1 1280 352 R0
SYMATTR InstName U8
SYMBOL pmos 1584 208 M180
SYMATTR InstName M3
SYMATTR Value Si4427DY
SYMBOL res 1904 320 R90
WINDOW 0 0 56 VBottom 2
WINDOW 3 32 56 VTop 2
SYMATTR InstName R_filter
SYMATTR Value {R_f}
TEXT 360 984 Center 2 ;Non-overlap Clock Generator
TEXT 1232 616 Left 2 ;Gate Driver
TEXT 1760 448 Left 2 ;LPF
TEXT 632 -272 Center 4 ;Power Stage and LPF
TEXT 1936 1064 Center 4 ;Aadarsh Ramachandiran-EE23B001
TEXT 232 -360 Left 5 ;Analog Systems and Lab (2025)
TEXT -1008 1032 Left 2 !.params C_p=1n C_n=1n C_f=47u L_f=100u R_f=0.35
LINE Normal 2048 688 2048 0 2
RECTANGLE Normal 1920 480 1664 224 2
RECTANGLE Normal 912 928 -128 -80 2
RECTANGLE Normal 1488 576 1056 80 2
