Version 4.1
SHEET 1 1912 680
WIRE -288 -384 -416 -384
WIRE -240 -384 -288 -384
WIRE 48 -384 0 -384
WIRE -288 -352 -288 -384
WIRE -240 -352 -288 -352
WIRE 608 -352 576 -352
WIRE -240 -320 -304 -320
WIRE 608 -320 576 -320
WIRE 896 -320 848 -320
WIRE -240 -288 -288 -288
WIRE 960 -80 960 -128
WIRE -512 0 -560 0
WIRE -336 0 -384 0
WIRE 224 64 176 64
WIRE 368 64 288 64
WIRE -560 80 -560 0
WIRE -384 80 -384 0
WIRE 960 80 960 -16
WIRE 960 80 928 80
WIRE 960 96 960 80
WIRE 304 128 304 112
WIRE 368 144 368 64
WIRE 368 144 336 144
WIRE 432 144 368 144
WIRE 544 144 512 144
WIRE 176 160 176 64
WIRE 176 160 144 160
WIRE 272 160 176 160
WIRE 352 176 336 176
WIRE -560 192 -560 160
WIRE -384 192 -384 160
WIRE 304 208 304 192
WIRE 960 208 960 176
FLAG 304 112 0
FLAG 304 208 VCC
IOPIN 304 208 In
FLAG 352 176 V_REF
IOPIN 352 176 In
FLAG 544 144 V_FB
IOPIN 544 144 In
FLAG 144 160 V_CTRL
IOPIN 144 160 Out
FLAG 960 208 0
FLAG 928 80 V_FB
IOPIN 928 80 Out
FLAG 896 -320 V_OUT
IOPIN 896 -320 Out
FLAG 960 -128 V_OUT
IOPIN 960 -128 In
FLAG 48 -384 V_PWM
IOPIN 48 -384 Out
FLAG 576 -352 V_PWM
IOPIN 576 -352 In
FLAG -288 -288 VCC
IOPIN -288 -288 In
FLAG 576 -320 VCC
IOPIN 576 -320 In
FLAG -304 -320 V_CTRL
IOPIN -304 -320 In
FLAG -336 0 V_REF
IOPIN -336 0 Out
FLAG -384 192 0
FLAG -496 -384 0
FLAG -512 0 VCC
IOPIN -512 0 Out
FLAG -560 192 0
SYMBOL Ext_models\\MCP6001 304 160 R180
SYMATTR InstName U1
SYMBOL cap 288 48 R90
WINDOW 0 0 32 VBottom 2
WINDOW 3 32 32 VTop 2
SYMATTR InstName C1
SYMATTR Value {C_c}
SYMBOL res 528 128 R90
WINDOW 0 0 56 VBottom 2
WINDOW 3 32 56 VTop 2
SYMATTR InstName R1
SYMATTR Value {R_c}
SYMBOL p1_instance -128 -336 R0
SYMATTR InstName Exp1
SYMBOL res 944 80 R0
SYMATTR InstName R_SENSE
SYMATTR Value {R_sense}
SYMBOL LED 944 -80 R0
SYMATTR InstName D1
SYMATTR Value L128-FRD1003500000
SYMBOL voltage -384 64 R0
SYMATTR InstName V1
SYMATTR Value {V_REF}
SYMBOL voltage -400 -384 R90
WINDOW 0 -32 56 VBottom 2
WINDOW 3 32 56 VTop 2
SYMATTR InstName V3
SYMATTR Value 2.5
SYMBOL p2_instance 720 -336 R0
SYMATTR InstName Exp2
SYMBOL voltage -560 64 R0
SYMATTR InstName V_SUPPLY
SYMATTR Value {V_SUPPLY}
TEXT 208 344 Left 2 ;Type-I Compensator
TEXT -208 -200 Left 2 ;PWM Modulator
TEXT 608 -208 Left 2 ;Power Stage and LPF
TEXT 792 296 Left 2 !.params V_SUPPLY=5 V_REF=0.25 R_sense=5 R_c=10k C_c=25n
TEXT 792 344 Left 2 !.tran 5m startup uic
TEXT 144 -672 Left 4 ;Pole Compensation
TEXT 1480 408 Left 2 ;Aadarsh Ramachandiran (EE23B001)
RECTANGLE Normal 704 304 -32 -48 2
