Version 4.1
SHEET 1 1936 680
WIRE 176 -160 144 -160
WIRE 464 -160 416 -160
WIRE 896 -160 864 -160
WIRE 176 -128 144 -128
WIRE 896 -128 864 -128
WIRE 1184 -128 1136 -128
WIRE 176 -96 112 -96
WIRE 176 -64 128 -64
WIRE 1344 80 1344 32
WIRE -288 240 -288 224
WIRE -272 240 -288 240
WIRE -288 256 -288 240
WIRE 1344 256 1344 144
WIRE -288 352 -288 336
WIRE -288 352 -304 352
WIRE -256 352 -288 352
WIRE -144 352 -144 320
WIRE -288 368 -288 352
WIRE 1344 368 1344 336
WIRE -288 480 -288 448
WIRE -144 480 -144 432
FLAG 464 -160 V_PWM
IOPIN 464 -160 Out
FLAG 128 -64 VCC
IOPIN 128 -64 In
FLAG -256 352 V_CM
IOPIN -256 352 Out
FLAG -288 144 0
FLAG -288 480 0
FLAG -272 240 VCC
IOPIN -272 240 Out
FLAG -304 352 V_BIAS
IOPIN -304 352 Out
FLAG -144 320 V_CTRL
IOPIN -144 320 Out
FLAG -144 480 0
FLAG 144 -128 V_CM
IOPIN 144 -128 In
FLAG 144 -160 V_BIAS
IOPIN 144 -160 In
FLAG 112 -96 V_CTRL
IOPIN 112 -96 In
FLAG 1184 -128 V_OUT
IOPIN 1184 -128 Out
FLAG 864 -160 V_PWM
IOPIN 864 -160 In
FLAG 864 -128 VCC
IOPIN 864 -128 In
FLAG 1344 368 0
FLAG 1344 32 V_OUT
IOPIN 1344 32 In
SYMBOL p1_instance 288 -112 R0
SYMATTR InstName Exp1
SYMBOL res -304 240 R0
SYMATTR InstName R1
SYMATTR Value 1k
SYMBOL res -304 352 R0
SYMATTR InstName R2
SYMATTR Value 1k
SYMBOL voltage -288 240 R180
WINDOW 0 24 96 Left 2
WINDOW 3 24 16 Left 2
WINDOW 123 0 0 Left 0
WINDOW 39 0 0 Left 0
SYMATTR InstName V_SUPPLY2
SYMATTR Value 5
SYMBOL voltage -144 336 R0
WINDOW 123 0 0 Left 0
WINDOW 39 0 0 Left 0
SYMATTR InstName CTRL_SUPPLY1
SYMATTR Value 2.5
SYMBOL p2_instance 1008 -144 R0
SYMATTR InstName Exp2
SYMBOL res 1328 240 R0
SYMATTR InstName R_SENSE1
SYMATTR Value {R_sense}
SYMBOL LED 1328 80 R0
SYMATTR InstName D1
SYMATTR Value L128-FRD1003500000
TEXT 208 24 Left 2 ;PWM Modulator
TEXT 1168 464 Left 2 !.params V_SUPPLY=5 V_REF=0.25 R_sense=5 R_c=10k C_c=25n
TEXT 1168 512 Left 2 !.tran 0 1m 0
TEXT 896 -16 Left 2 ;Power Stage and LPF
